Version 4
SHEET 1 1424 860
WIRE -224 -208 -352 -208
WIRE -112 -208 -224 -208
WIRE 160 -208 -112 -208
WIRE 672 -208 288 -208
WIRE -352 -192 -352 -208
WIRE 160 -192 160 -208
WIRE 288 -192 288 -208
WIRE -224 -176 -224 -208
WIRE -112 -176 -112 -208
WIRE -352 -80 -352 -112
WIRE -224 -80 -224 -112
WIRE -112 -80 -112 -112
WIRE 1136 112 912 112
WIRE -352 160 -496 160
WIRE -272 160 -352 160
WIRE -64 160 -272 160
WIRE 0 160 -64 160
WIRE 480 160 448 160
WIRE 736 160 480 160
WIRE 832 160 736 160
WIRE 912 160 912 112
WIRE 912 160 832 160
WIRE 1216 160 1216 112
WIRE 1216 160 1088 160
WIRE 1312 160 1216 160
WIRE -496 176 -496 160
WIRE -352 176 -352 160
WIRE -272 176 -272 160
WIRE -64 176 -64 160
WIRE 480 176 480 160
WIRE 736 176 736 160
WIRE 832 176 832 160
WIRE 912 176 912 160
WIRE -160 256 -176 256
WIRE -64 256 -64 240
WIRE -64 256 -80 256
WIRE 0 256 -64 256
WIRE 480 256 480 240
WIRE 480 256 448 256
WIRE 544 256 480 256
WIRE 640 256 624 256
WIRE 1088 256 1088 224
WIRE 1216 256 1216 224
WIRE 1216 256 1088 256
WIRE 1312 256 1312 240
WIRE 1312 256 1216 256
WIRE -496 272 -496 256
WIRE -352 272 -352 240
WIRE -272 272 -272 240
WIRE 736 272 736 240
WIRE 832 272 832 240
WIRE 1312 272 1312 256
WIRE 1312 288 1312 272
WIRE 1344 288 1344 272
WIRE 0 352 -32 352
WIRE 480 352 448 352
WIRE -96 448 -112 448
WIRE 0 448 -32 448
WIRE 480 448 448 448
WIRE 560 448 544 448
WIRE 672 544 672 -208
WIRE 672 544 448 544
WIRE 144 624 144 608
WIRE 288 624 288 608
FLAG -352 -80 0
FLAG 144 624 0
FLAG 288 624 0
FLAG -112 448 0
FLAG -176 256 0
FLAG -496 272 0
FLAG -272 272 0
FLAG 640 256 0
FLAG 1312 272 0
FLAG 736 272 0
FLAG 560 448 0
FLAG -352 -208 IN
FLAG -496 160 OUT1
FLAG 912 160 OUT2
FLAG -224 -80 0
FLAG -112 -80 0
FLAG 832 272 0
FLAG -352 272 0
FLAG -96 352 0
FLAG 544 352 0
SYMBOL PowerProducts\\LTM4619 224 208 R0
SYMATTR InstName U1
SYMBOL voltage -352 -208 R0
SYMATTR InstName V1
SYMATTR Value 12
SYMBOL cap -32 432 R90
WINDOW 0 0 32 VBottom 2
WINDOW 3 32 32 VTop 2
SYMATTR InstName C1
SYMATTR Value .0002µ
SYMBOL res -64 240 R90
WINDOW 0 0 56 VBottom 2
WINDOW 3 32 56 VTop 2
SYMATTR InstName R1
SYMATTR Value 19.1K
SYMBOL cap -80 176 R0
SYMATTR InstName C2
SYMATTR Value 10p
SYMBOL cap -288 176 R0
SYMATTR InstName C3
SYMATTR Value 100µ
SYMATTR SpiceLine Rser=5m
SYMBOL res 528 240 M90
WINDOW 0 0 56 VBottom 2
WINDOW 3 32 56 VTop 2
SYMATTR InstName R2
SYMATTR Value 40.2K
SYMBOL cap 464 176 R0
SYMATTR InstName C4
SYMATTR Value 22p
SYMBOL cap 720 176 R0
SYMATTR InstName C5
SYMATTR Value 47µ
SYMATTR SpiceLine Rser=5m
SYMBOL cap 480 432 M90
WINDOW 0 0 32 VBottom 2
WINDOW 3 32 32 VTop 2
SYMATTR InstName C6
SYMATTR Value .0002µ
SYMBOL cap -240 -176 R0
SYMATTR InstName C7
SYMATTR Value 150µ
SYMATTR SpiceLine Rser=23m
SYMBOL cap -128 -176 R0
SYMATTR InstName C8
SYMATTR Value 10µ
SYMATTR SpiceLine Rser=5m
SYMBOL cap 816 176 R0
SYMATTR InstName C9
SYMATTR Value 47µ
SYMATTR SpiceLine Rser=5m
SYMBOL cap -368 176 R0
SYMATTR InstName C10
SYMATTR Value 22µ
SYMATTR SpiceLine Rser=5m
SYMBOL cap -32 336 R90
WINDOW 0 0 32 VBottom 2
WINDOW 3 32 32 VTop 2
SYMATTR InstName C11
SYMATTR Value 47p
SYMBOL cap 544 336 R90
WINDOW 0 0 32 VBottom 2
WINDOW 3 32 32 VTop 2
SYMATTR InstName C12
SYMATTR Value 22p
SYMBOL res -512 160 R0
SYMATTR InstName Rload1
SYMATTR Value 0.825
SYMBOL res 1296 144 R0
SYMATTR InstName Rload2
SYMATTR Value 0.45
SYMBOL ind 1120 128 R270
WINDOW 0 32 56 VTop 2
WINDOW 3 5 56 VBottom 2
SYMATTR InstName L2
SYMATTR Value 2.2µ
SYMATTR SpiceLine Rser=10m
SYMBOL cap 1200 160 R0
SYMATTR InstName C13
SYMATTR Value 47µ
SYMATTR SpiceLine Rser=2m
SYMBOL cap 1072 160 R0
SYMATTR InstName C14
SYMATTR Value 47µ
SYMATTR SpiceLine Rser=0.35
TEXT 664 592 Left 2 !.tran 1m startup
TEXT 232 -216 Bottom 2 ;LTM4619 - Dual 4A Step-Down DC/DC µModule\nInput: 12V     Output1: 3.3V @ 4A, Output2: 1.8V @ 4A
TEXT -328 640 Left 2 ;Note:\n  If the simulation model is not found please update with the "Sync Release" command from the "Tools" menu.\n  It remains the customer's responsibility to verify proper and reliable operation in the actual application.\n  Component substitution and printed circuit board layout may significantly affect circuit performance or reliability\n  Contact your local sales representative for assistance. This circuit is distributed to customers only for use with LTC parts\n  Copyright © 2010 Linear Technology Inc. All rights reserved.
