Version 4
SHEET 1 1552 680
WIRE 128 16 32 16
WIRE 224 16 128 16
WIRE 416 16 224 16
WIRE 32 32 32 16
WIRE 128 32 128 16
WIRE 416 32 416 16
WIRE 224 96 224 16
WIRE 272 96 224 96
WIRE 640 96 560 96
WIRE 752 96 640 96
WIRE 864 96 752 96
WIRE 928 96 864 96
WIRE 752 112 752 96
WIRE 864 112 864 96
WIRE 1008 112 1008 96
WIRE 1088 112 1008 112
WIRE 1200 112 1088 112
WIRE 32 128 32 112
WIRE 128 128 128 96
WIRE 640 128 640 96
WIRE 1008 128 1008 112
WIRE 592 176 560 176
WIRE 1008 192 864 192
WIRE 1088 192 1008 192
WIRE 1200 192 1200 176
WIRE 1200 192 1088 192
WIRE 752 208 752 176
WIRE 864 208 864 192
WIRE 176 256 160 256
WIRE 272 256 256 256
WIRE 640 256 640 208
WIRE 640 256 560 256
WIRE 416 336 416 320
FLAG 416 336 0
FLAG 160 256 0
FLAG 752 208 0
FLAG 864 208 0
FLAG 32 128 0
FLAG 32 16 IN
FLAG 864 96 OUT-
FLAG 592 176 0
FLAG 128 128 0
SYMBOL res 272 240 R90
WINDOW 0 0 56 VBottom 2
WINDOW 3 32 56 VTop 2
SYMATTR InstName R1
SYMATTR Value 130K
SYMBOL cap 736 112 R0
SYMATTR InstName C2
SYMATTR Value 22µ
SYMATTR SpiceLine Rser=5m
SYMBOL voltage 32 16 R0
WINDOW 123 24 138 Left 2
WINDOW 39 24 117 Left 2
SYMATTR InstName V1
SYMATTR Value 5
SYMBOL cap 112 32 R0
SYMATTR InstName C1
SYMATTR Value 4.7µ
SYMBOL res 624 112 R0
SYMATTR InstName R2
SYMATTR Value 60.4K
SYMBOL res 1072 96 R0
SYMATTR InstName Rload-
SYMATTR Value 12
SYMBOL PowerProducts\\LTM8045 416 176 R0
SYMATTR InstName U1
SYMBOL ind 912 112 R270
WINDOW 0 32 56 VTop 2
WINDOW 3 5 56 VBottom 2
SYMATTR InstName L1
SYMATTR Value 2.2µ
SYMATTR SpiceLine Rser=10m
SYMBOL cap 992 128 R0
SYMATTR InstName C3
SYMATTR Value 20µ
SYMATTR SpiceLine Rser=2
SYMBOL cap 1184 112 R0
SYMATTR InstName C4
SYMATTR Value 47µ
SYMATTR SpiceLine Rser=0.35
TEXT 656 336 Left 2 !.tran 1m startup
TEXT -144 384 Left 2 ;Note:\n  If the simulation model is not found please update with the "Sync Release" command from the "Tools" menu.\n  It remains the customer's responsibility to verify proper and reliable operation in the actual application.\n  Component substitution and printed circuit board layout may significantly affect circuit performance or reliability.\n  Contact your local sales representative for assistance. This circuit is distributed to customers only for use with LTC parts.\n  Copyright © 2013 Linear Technology Inc. All rights reserved.
TEXT 488 -32 Bottom 2 ;LTM8045 - Inverting or SEPIC µModule DC/DC Converter with Up to 700mA Output Current\n-5V Inverting Converter\nInput: 2.8V to 18V       Output: -5V @ 430mA with 5V input, Fsw = 700kHz
